Circuit: *load regulation

WARNING: Less than two connections to node /EN.  This node is used by R1.
Instance "m:u1:_max15007a_m3:1": Length shorter than recommended for a level 1 MOSFET.
Instance "m:u1:_max15007a_m2:1": Length shorter than recommended for a level 1 MOSFET.
Instance "m:u1:_max15007a_m1:1": Length shorter than recommended for a level 1 MOSFET.
Instance "m:u1:_max15007a_m1:1": Width narrower than recommended for a level 1 MOSFET.
Instance "m:u1:_max15007a_m4:1": Length shorter than recommended for a level 1 MOSFET.
Ignoring empty pin current: Ix(u1:2)
Ignoring empty pin current: Ix(u1:3)
Ignoring empty pin current: Ix(u1:4)
Ignoring empty pin current: Ix(u1:6)
Ignoring empty pin current: Ix(u1:7)

Date: Mon Nov 07 18:33:49 2022
Total elapsed time: 13.303 seconds.

tnom = 27
temp = 27
method = trap
totiter = 1000031
traniter = 0
tranpoints = 0
accept = 0
rejected = 0
matrix size = 84
fillins = 34
solver = Normal
Matrix Compiler1: 5.58 KB object code size  3.6/1.8/[0.5]
Matrix Compiler2: 6.98 KB object code size  1.5/2.4/[0.5]

